* PSpice Model Editor - Version 17.2.0

*$
*BeginSpec
*IF: (1.4828,1.0336E-6) (1.5057,1.5717E-6) (1.5276,2.4162E-6) (1.5483,3.9253E-6) (1.5678,6.0346E-6) (1.5885,9.9122E-6) (1.6172,19.638E-6) (1.6368,31.207E-6) (1.6678,63.908E-6)
*IF: (1.6862,101.56E-6) (1.7092,199.00E-6) (1.7345,407.52E-6) (1.7690,995.60E-6) (1.8000,2.0389E-3) (1.8299,4.0394E-3) (1.8782,10.089E-3) (1.9023,14.678E-3) (1.9241,20.434E-3)
*IF: (1.9586,30.392E-3) (1.9920,43.253E-3) (2.0195,55.740E-3) (2.0494,73.435E-3) (2.0885,97.819E-3)
*JC:
*RL:
*RB: Vz=0 Iz=0 Zz=0
*RR: Trr=0 Ifwd=10.000E-3 Irev=10.000E-3 Rl=100
*EndSpec

*BeginTrace
*IF: 1,0,.4,2.0885,1,3,0,0,-1 (27)
*JC: 0,1,.1,10,1,3,0,0,-1 (27)
*RL: 0,0,1,100,1,3,0,0,-1 (27)
*RB: 0,1,100.00E-6,1,1,3,0,0,-1 (27)
*RR: 0,0,-5.0000E-9,20.000E-9,1,3,0,0,-1 (27)
*EndTrace

*BeginParam
*IS=10.000E-21 (10.000E-21,.1,0)
*N=1.7620 (.2,5,0)
*RS=.87844 (1.0000E-6,100,0)
*IKF=1.4836 (0,1.0000E3,0)
*XTI=3 (-100,100,0)
*EG=1.1100 (.1,5.5100,0)
*CJO=1.0000E-12 (10.000E-21,1.0000E-3,0)
*M=.3333 (.1,10,0)
*VJ=.75 (.3905,10,0)
*FC=.5 (1.0000E-3,10,0)
*ISR=100.00E-12 (10.000E-21,.1,0)
*NR=2 (.5,5,0)
*BV=100 (.1,1.0000E6,0)
*IBV=100.00E-6 (1.0000E-9,10,0)
*TT=5.0000E-9 (100.00E-18,1.0000E-3,0)
*EndParam

*DEVICE=led,D

* led D model
* created using Model Editor release 17.2.0 on 05/30/24 at 12:40
* The Model Editor is a PSpice product.
.MODEL led D
+ IS=10.000E-21
+ N=1.7620

